Version 4
SHEET 1 1580 680
WIRE 912 -336 128 -336
WIRE 1072 -224 928 -224
WIRE 1200 -224 1152 -224
WIRE 800 -176 656 -176
WIRE 928 -176 928 -224
WIRE 928 -176 880 -176
WIRE 656 -160 656 -176
WIRE 1200 -64 1200 -224
WIRE 1200 -64 1152 -64
WIRE 1264 -64 1200 -64
WIRE 1408 -64 1328 -64
WIRE 784 -48 656 -48
WIRE 960 -48 864 -48
WIRE 1088 -48 1056 -48
WIRE 656 -32 656 -48
WIRE 928 -16 928 -176
WIRE 960 -16 928 -16
WIRE 1152 -16 1152 -64
WIRE 1152 -16 1056 -16
WIRE 912 16 912 -336
WIRE 960 16 912 16
WIRE 400 32 272 32
WIRE 656 96 656 48
WIRE 128 128 128 -336
WIRE 272 128 272 32
WIRE 128 256 128 208
WIRE 208 256 128 256
WIRE 272 256 272 208
WIRE 272 256 208 256
WIRE 208 288 208 256
WIRE 400 352 400 32
WIRE 1088 352 1088 -48
WIRE 1088 352 400 352
FLAG 208 288 0
FLAG 656 -160 0
FLAG 656 96 0
SYMBOL voltage 272 112 R0
WINDOW 123 0 0 Left 2
WINDOW 39 0 0 Left 2
SYMATTR InstName V2
SYMATTR Value -12V
SYMBOL voltage 128 112 R0
WINDOW 123 0 0 Left 2
WINDOW 39 0 0 Left 2
SYMATTR InstName V1
SYMATTR Value 12V
SYMBOL voltage 656 -48 R0
WINDOW 123 0 0 Left 2
WINDOW 39 0 0 Left 2
SYMATTR InstName V3
SYMATTR Value SINE(0 0.6 10meg 0 0 0)
SYMBOL res 896 -192 R90
WINDOW 0 0 56 VBottom 2
WINDOW 3 32 56 VTop 2
SYMATTR InstName R1
SYMATTR Value 1k
SYMBOL res 1168 -240 R90
WINDOW 0 0 56 VBottom 2
WINDOW 3 32 56 VTop 2
SYMATTR InstName R3
SYMATTR Value 16k
SYMBOL res 880 -64 R90
WINDOW 0 0 56 VBottom 2
WINDOW 3 32 56 VTop 2
SYMATTR InstName R4
SYMATTR Value 200
SYMBOL cap 1328 -80 R90
WINDOW 0 0 32 VBottom 2
WINDOW 3 32 32 VTop 2
SYMATTR InstName C1
SYMATTR Value 1µ
SYMBOL AutoGenerated\\AD8021 1008 -16 R0
SYMATTR InstName U2
TEXT 128 416 Left 2 !.tran 0.1ms
